glm/Master_base.glm
object regulator_configuration {
  name "rcon_trans_n650-n630";
  connect_type WYE_WYE;
    Control MANUAL; // LINE_DROP_COMP;
  // use these for OUTPUT_VOLTAGE mode
  // band_center 2400.000000;
  // band_width 40.000000;
  // use these for LINE_DROP_COMP mode
  // band_center 120.000000;
  // band_width 2.000000;
  // transducer ratios only apply to LINE_DROP_COMP mode
  current_transducer_ratio 3500.000000;
  power_transducer_ratio 20.000000;
  dwell_time 15.000000;
  raise_taps 16;
  lower_taps 16;
  regulation 0.100000;
  Type B;
  compensator_r_setting_A 3.000000;
  compensator_r_setting_B 3.000000;
  compensator_r_setting_C 3.000000;
  compensator_x_setting_A 7.500000;
  compensator_x_setting_B 7.500000;
  compensator_x_setting_C 7.500000;
  // comment out the manual tap settings if using automatic control
  tap_pos_A 16;
  tap_pos_B 16;
  tap_pos_C 16;
}
object regulator {
  name "reg_trans_n650-n630";
  from "n650";
  to "n630";
  phases ABC;
  configuration "rcon_trans_n650-n630";
  continuous_rating_A 152.66;
  continuous_rating_B 152.66;
  continuous_rating_C 152.66;
  emergency_rating_A 208.18;
  emergency_rating_B 208.18;
  emergency_rating_C 208.18;
}
object line_configuration {
  name "lcon_1p_ug_code4_A";
  z11 0.405140+0.410718j;
  c11 3.6538;
}
object triplex_line_configuration {
  name "tcon_2p_code10_12";
  z11 0.139476+0.328574j;
  z12 0.0467868+0.117318j;
  z21 0.0467868+0.117318j;
  z22 0.140665+0.324642j;
}
object line_configuration {
  name "lcon_2p_oh_code0_BC";
  z22 0.139476+0.328574j;
  c22 4.1357;
  z23 0.0467868+0.117318j;
  c23 -0.8529;
  z32 0.0467868+0.117318j;
  c32 -0.8529;
  z33 0.140665+0.324642j;
  c33 4.1802;
}
object line_configuration {
  name "lcon_3p_oh_code6_ABC";
  z11 0.139476+0.328574j;
  c11 4.5894;
  z12 0.0475488+0.152918j;
  c12 -1.4811;
  z13 0.0467868+0.117318j;
  c13 -0.5645;
  z21 0.0475488+0.152918j;
  c21 -1.4811;
  z22 0.142220+0.319491j;
  c22 4.8355;
  z23 0.0481584+0.129113j;
  c23 -0.9415;
  z31 0.0467868+0.117318j;
  c31 -0.5645;
  z32 0.0481584+0.129113j;
  c32 -0.9415;
  z33 0.140665+0.324642j;
  c33 4.3635;
}
object line_configuration {
  name "lcon_3p_oh_code1_ABC";
  z11 0.139476+0.328574j;
  c11 4.5894;
  z12 0.0475488+0.152918j;
  c12 -1.4811;
  z13 0.0467868+0.117318j;
  c13 -0.5645;
  z21 0.0475488+0.152918j;
  c21 -1.4811;
  z22 0.142220+0.319491j;
  c22 4.8355;
  z23 0.0481584+0.129113j;
  c23 -0.9415;
  z31 0.0467868+0.117318j;
  c31 -0.5645;
  z32 0.0481584+0.129113j;
  c32 -0.9415;
  z33 0.140665+0.324642j;
  c33 4.3635;
}
object line_configuration {
  name "lcon_3p_ug_code5_ABC";
  z11 0.139476+0.328574j;
  c11 4.5894;
  z12 0.0475488+0.152918j;
  c12 -1.4811;
  z13 0.0467868+0.117318j;
  c13 -0.5645;
  z21 0.0475488+0.152918j;
  c21 -1.4811;
  z22 0.142220+0.319491j;
  c22 4.8355;
  z23 0.0481584+0.129113j;
  c23 -0.9415;
  z31 0.0467868+0.117318j;
  c31 -0.5645;
  z32 0.0481584+0.129113j;
  c32 -0.9415;
  z33 0.140665+0.324642j;
  c33 4.3635;
}
object line_configuration {
  name "lcon_1p_oh_code3_C";
  z33 0.405140+0.410718j;
  c33 3.6538;
}
object line_configuration {
  name "lcon_1p_oh_code9_B";
  z22 0.405140+0.410718j;
  c22 3.6538;
}
object line_configuration {
  name "lcon_1p_oh_code8_A";
  z11 0.405140+0.410718j;
  c11 3.6538;
}
object line_configuration {
  name "lcon_2p_oh_code2_AC";
  z11 0.139476+0.328574j;
  c11 4.1357;
  z13 0.0467868+0.117318j;
  c13 -0.8529;
  z31 0.0467868+0.117318j;
  c31 -0.8529;
  z33 0.140665+0.324642j;
  c33 4.1802;
}
object transformer_configuration {
  name "xcon_cimxfmrcode_xfmr_611_c_2C";
  power_rating 10000.000;
  powerA_rating 0.0;
  powerB_rating 0.0;
  powerC_rating 10000.000;
  primary_voltage 2400.000;
  secondary_voltage 120.000;
  connect_type SINGLE_PHASE_CENTER_TAPPED;
  impedance 3.00000e-05+0.0136000j;
  impedance1 6.00000e-05+0.00680000j;
  impedance2 6.00000e-05+0.00680000j;
}
object transformer_configuration {
  name "xcon_cimxfmrcode_xfmr_684_c_2C";
  power_rating 10000.000;
  powerA_rating 0.0;
  powerB_rating 0.0;
  powerC_rating 10000.000;
  primary_voltage 2400.000;
  secondary_voltage 120.000;
  connect_type SINGLE_PHASE_CENTER_TAPPED;
  impedance 3.00000e-05+0.0136000j;
  impedance1 6.00000e-05+0.00680000j;
  impedance2 6.00000e-05+0.00680000j;
}
object transformer_configuration {
  name "xcon_cimxfmrcode_xfmr_611_c_1C";
  power_rating 10000.000;
  powerA_rating 0.0;
  powerB_rating 0.0;
  powerC_rating 10000.000;
  primary_voltage 2400.000;
  secondary_voltage 120.000;
  connect_type SINGLE_PHASE_CENTER_TAPPED;
  impedance 3.00000e-05+0.0136000j;
  impedance1 6.00000e-05+0.00680000j;
  impedance2 6.00000e-05+0.00680000j;
}
object transformer_configuration {
  name "xcon_cimxfmrcode_xfmr_684_c_1C";
  power_rating 10000.000;
  powerA_rating 0.0;
  powerB_rating 0.0;
  powerC_rating 10000.000;
  primary_voltage 2400.000;
  secondary_voltage 120.000;
  connect_type SINGLE_PHASE_CENTER_TAPPED;
  impedance 3.00000e-05+0.0136000j;
  impedance1 6.00000e-05+0.00680000j;
  impedance2 6.00000e-05+0.00680000j;
}
object transformer_configuration {
  name "xcon_cimxfmrcode_xfmr_611_c_4C";
  power_rating 10000.000;
  powerA_rating 0.0;
  powerB_rating 0.0;
  powerC_rating 10000.000;
  primary_voltage 2400.000;
  secondary_voltage 120.000;
  connect_type SINGLE_PHASE_CENTER_TAPPED;
  impedance 3.00000e-05+0.0136000j;
  impedance1 6.00000e-05+0.00680000j;
  impedance2 6.00000e-05+0.00680000j;
}
object transformer_configuration {
  name "xcon_cimxfmrcode_xfmr_671_a_5A";
  power_rating 10000.000;
  powerA_rating 10000.000;
  powerB_rating 0.0;
  powerC_rating 0.0;
  primary_voltage 2400.000;
  secondary_voltage 120.000;
  connect_type SINGLE_PHASE_CENTER_TAPPED;
  impedance 3.00000e-05+0.0136000j;
  impedance1 6.00000e-05+0.00680000j;
  impedance2 6.00000e-05+0.00680000j;
}
object transformer_configuration {
  name "xcon_cimxfmrcode_xfmr_684_c_4C";
  power_rating 10000.000;
  powerA_rating 0.0;
  powerB_rating 0.0;
  powerC_rating 10000.000;
  primary_voltage 2400.000;
  secondary_voltage 120.000;
  connect_type SINGLE_PHASE_CENTER_TAPPED;
  impedance 3.00000e-05+0.0136000j;
  impedance1 6.00000e-05+0.00680000j;
  impedance2 6.00000e-05+0.00680000j;
}
object transformer_configuration {
  name "xcon_cimxfmrcode_xfmr_611_c_3C";
  power_rating 10000.000;
  powerA_rating 0.0;
  powerB_rating 0.0;
  powerC_rating 10000.000;
  primary_voltage 2400.000;
  secondary_voltage 120.000;
  connect_type SINGLE_PHASE_CENTER_TAPPED;
  impedance 3.00000e-05+0.0136000j;
  impedance1 6.00000e-05+0.00680000j;
  impedance2 6.00000e-05+0.00680000j;
}
object transformer_configuration {
  name "xcon_cimxfmrcode_xfmr_684_c_3C";
  power_rating 10000.000;
  powerA_rating 0.0;
  powerB_rating 0.0;
  powerC_rating 10000.000;
  primary_voltage 2400.000;
  secondary_voltage 120.000;
  connect_type SINGLE_PHASE_CENTER_TAPPED;
  impedance 3.00000e-05+0.0136000j;
  impedance1 6.00000e-05+0.00680000j;
  impedance2 6.00000e-05+0.00680000j;
}
object transformer_configuration {
  name "xcon_cimxfmrcode_xfmr_633_b_4B";
  power_rating 10000.000;
  powerA_rating 0.0;
  powerB_rating 10000.000;
  powerC_rating 0.0;
  primary_voltage 2400.000;
  secondary_voltage 120.000;
  connect_type SINGLE_PHASE_CENTER_TAPPED;
  impedance 3.00000e-05+0.0136000j;
  impedance1 6.00000e-05+0.00680000j;
  impedance2 6.00000e-05+0.00680000j;
}
object transformer_configuration {
  name "xcon_cimxfmrcode_xfmr_671_a_3A";
  power_rating 10000.000;
  powerA_rating 10000.000;
  powerB_rating 0.0;
  powerC_rating 0.0;
  primary_voltage 2400.000;
  secondary_voltage 120.000;
  connect_type SINGLE_PHASE_CENTER_TAPPED;
  impedance 3.00000e-05+0.0136000j;
  impedance1 6.00000e-05+0.00680000j;
  impedance2 6.00000e-05+0.00680000j;
}
object transformer_configuration {
  name "xcon_cimxfmrcode_xfmr_611_c_5C";
  power_rating 10000.000;
  powerA_rating 0.0;
  powerB_rating 0.0;
  powerC_rating 10000.000;
  primary_voltage 2400.000;
  secondary_voltage 120.000;
  connect_type SINGLE_PHASE_CENTER_TAPPED;
  impedance 3.00000e-05+0.0136000j;
  impedance1 6.00000e-05+0.00680000j;
  impedance2 6.00000e-05+0.00680000j;
}
object transformer_configuration {
  name "xcon_cimxfmrcode_xfmr_633_b_5B";
  power_rating 10000.000;
  powerA_rating 0.0;
  powerB_rating 10000.000;
  powerC_rating 0.0;
  primary_voltage 2400.000;
  secondary_voltage 120.000;
  connect_type SINGLE_PHASE_CENTER_TAPPED;
  impedance 3.00000e-05+0.0136000j;
  impedance1 6.00000e-05+0.00680000j;
  impedance2 6.00000e-05+0.00680000j;
}
object transformer_configuration {
  name "xcon_cimxfmrcode_xfmr_671_a_4A";
  power_rating 10000.000;
  powerA_rating 10000.000;
  powerB_rating 0.0;
  powerC_rating 0.0;
  primary_voltage 2400.000;
  secondary_voltage 120.000;
  connect_type SINGLE_PHASE_CENTER_TAPPED;
  impedance 3.00000e-05+0.0136000j;
  impedance1 6.00000e-05+0.00680000j;
  impedance2 6.00000e-05+0.00680000j;
}
object transformer_configuration {
  name "xcon_cimxfmrcode_xfmr_633_b_2B";
  power_rating 10000.000;
  powerA_rating 0.0;
  powerB_rating 10000.000;
  powerC_rating 0.0;
  primary_voltage 2400.000;
  secondary_voltage 120.000;
  connect_type SINGLE_PHASE_CENTER_TAPPED;
  impedance 3.00000e-05+0.0136000j;
  impedance1 6.00000e-05+0.00680000j;
  impedance2 6.00000e-05+0.00680000j;
}
object transformer_configuration {
  name "xcon_cimxfmrcode_xfmr_671_a_1A";
  power_rating 10000.000;
  powerA_rating 10000.000;
  powerB_rating 0.0;
  powerC_rating 0.0;
  primary_voltage 2400.000;
  secondary_voltage 120.000;
  connect_type SINGLE_PHASE_CENTER_TAPPED;
  impedance 3.00000e-05+0.0136000j;
  impedance1 6.00000e-05+0.00680000j;
  impedance2 6.00000e-05+0.00680000j;
}
object transformer_configuration {
  name "xcon_cimxfmrcode_xfmr_633_b_3B";
  power_rating 10000.000;
  powerA_rating 0.0;
  powerB_rating 10000.000;
  powerC_rating 0.0;
  primary_voltage 2400.000;
  secondary_voltage 120.000;
  connect_type SINGLE_PHASE_CENTER_TAPPED;
  impedance 3.00000e-05+0.0136000j;
  impedance1 6.00000e-05+0.00680000j;
  impedance2 6.00000e-05+0.00680000j;
}
object transformer_configuration {
  name "xcon_cimxfmrcode_xfmr_671_a_2A";
  power_rating 10000.000;
  powerA_rating 10000.000;
  powerB_rating 0.0;
  powerC_rating 0.0;
  primary_voltage 2400.000;
  secondary_voltage 120.000;
  connect_type SINGLE_PHASE_CENTER_TAPPED;
  impedance 3.00000e-05+0.0136000j;
  impedance1 6.00000e-05+0.00680000j;
  impedance2 6.00000e-05+0.00680000j;
}
object transformer_configuration {
  name "xcon_cimxfmrcode_xfmr_633_b_1B";
  power_rating 10000.000;
  powerA_rating 0.0;
  powerB_rating 10000.000;
  powerC_rating 0.0;
  primary_voltage 2400.000;
  secondary_voltage 120.000;
  connect_type SINGLE_PHASE_CENTER_TAPPED;
  impedance 3.00000e-05+0.0136000j;
  impedance1 6.00000e-05+0.00680000j;
  impedance2 6.00000e-05+0.00680000j;
}
object transformer_configuration {
  name "xcon_cimxfmrcode_xfmr_684_c_5C";
  power_rating 10000.000;
  powerA_rating 0.0;
  powerB_rating 0.0;
  powerC_rating 10000.000;
  primary_voltage 2400.000;
  secondary_voltage 120.000;
  connect_type SINGLE_PHASE_CENTER_TAPPED;
  impedance 3.00000e-05+0.0136000j;
  impedance1 6.00000e-05+0.00680000j;
  impedance2 6.00000e-05+0.00680000j;
}
object transformer_configuration {
  name "xcon_cimxfmrcode_xfmr_645_b_5B";
  power_rating 10000.000;
  powerA_rating 0.0;
  powerB_rating 10000.000;
  powerC_rating 0.0;
  primary_voltage 2400.000;
  secondary_voltage 120.000;
  connect_type SINGLE_PHASE_CENTER_TAPPED;
  impedance 3.00000e-05+0.0136000j;
  impedance1 6.00000e-05+0.00680000j;
  impedance2 6.00000e-05+0.00680000j;
}
object transformer_configuration {
  name "xcon_cimxfmrcode_xfmr_645_b_4B";
  power_rating 10000.000;
  powerA_rating 0.0;
  powerB_rating 10000.000;
  powerC_rating 0.0;
  primary_voltage 2400.000;
  secondary_voltage 120.000;
  connect_type SINGLE_PHASE_CENTER_TAPPED;
  impedance 3.00000e-05+0.0136000j;
  impedance1 6.00000e-05+0.00680000j;
  impedance2 6.00000e-05+0.00680000j;
}
object transformer_configuration {
  name "xcon_cimxfmrcode_xfmr_645_b_3B";
  power_rating 10000.000;
  powerA_rating 0.0;
  powerB_rating 10000.000;
  powerC_rating 0.0;
  primary_voltage 2400.000;
  secondary_voltage 120.000;
  connect_type SINGLE_PHASE_CENTER_TAPPED;
  impedance 3.00000e-05+0.0136000j;
  impedance1 6.00000e-05+0.00680000j;
  impedance2 6.00000e-05+0.00680000j;
}
object transformer_configuration {
  name "xcon_cimxfmrcode_xfmr_645_b_2B";
  power_rating 10000.000;
  powerA_rating 0.0;
  powerB_rating 10000.000;
  powerC_rating 0.0;
  primary_voltage 2400.000;
  secondary_voltage 120.000;
  connect_type SINGLE_PHASE_CENTER_TAPPED;
  impedance 3.00000e-05+0.0136000j;
  impedance1 6.00000e-05+0.00680000j;
  impedance2 6.00000e-05+0.00680000j;
}
object transformer_configuration {
  name "xcon_cimxfmrcode_xfmr_645_b_1B";
  power_rating 10000.000;
  powerA_rating 0.0;
  powerB_rating 10000.000;
  powerC_rating 0.0;
  primary_voltage 2400.000;
  secondary_voltage 120.000;
  connect_type SINGLE_PHASE_CENTER_TAPPED;
  impedance 3.00000e-05+0.0136000j;
  impedance1 6.00000e-05+0.00680000j;
  impedance2 6.00000e-05+0.00680000j;
}
object transformer_configuration {
  name "xcon_cimxfmrcode_xfmr_692_b_5B";
  power_rating 10000.000;
  powerA_rating 0.0;
  powerB_rating 10000.000;
  powerC_rating 0.0;
  primary_voltage 2400.000;
  secondary_voltage 120.000;
  connect_type SINGLE_PHASE_CENTER_TAPPED;
  impedance 3.00000e-05+0.0136000j;
  impedance1 6.00000e-05+0.00680000j;
  impedance2 6.00000e-05+0.00680000j;
}
object transformer_configuration {
  name "xcon_cimxfmrcode_xfmr_692_b_2B";
  power_rating 10000.000;
  powerA_rating 0.0;
  powerB_rating 10000.000;
  powerC_rating 0.0;
  primary_voltage 2400.000;
  secondary_voltage 120.000;
  connect_type SINGLE_PHASE_CENTER_TAPPED;
  impedance 3.00000e-05+0.0136000j;
  impedance1 6.00000e-05+0.00680000j;
  impedance2 6.00000e-05+0.00680000j;
}
object transformer_configuration {
  name "xcon_cimxfmrcode_xfmr_692_b_1B";
  power_rating 10000.000;
  powerA_rating 0.0;
  powerB_rating 10000.000;
  powerC_rating 0.0;
  primary_voltage 2400.000;
  secondary_voltage 120.000;
  connect_type SINGLE_PHASE_CENTER_TAPPED;
  impedance 3.00000e-05+0.0136000j;
  impedance1 6.00000e-05+0.00680000j;
  impedance2 6.00000e-05+0.00680000j;
}
object transformer_configuration {
  name "xcon_cimxfmrcode_xfmr_692_b_4B";
  power_rating 10000.000;
  powerA_rating 0.0;
  powerB_rating 10000.000;
  powerC_rating 0.0;
  primary_voltage 2400.000;
  secondary_voltage 120.000;
  connect_type SINGLE_PHASE_CENTER_TAPPED;
  impedance 3.00000e-05+0.0136000j;
  impedance1 6.00000e-05+0.00680000j;
  impedance2 6.00000e-05+0.00680000j;
}
object transformer_configuration {
  name "xcon_cimxfmrcode_xfmr_692_b_3B";
  power_rating 10000.000;
  powerA_rating 0.0;
  powerB_rating 10000.000;
  powerC_rating 0.0;
  primary_voltage 2400.000;
  secondary_voltage 120.000;
  connect_type SINGLE_PHASE_CENTER_TAPPED;
  impedance 3.00000e-05+0.0136000j;
  impedance1 6.00000e-05+0.00680000j;
  impedance2 6.00000e-05+0.00680000j;
}
object transformer_configuration {
  name "xcon_cimxfmrcode_xfmr_652_a_1A";
  power_rating 10000.000;
  powerA_rating 10000.000;
  powerB_rating 0.0;
  powerC_rating 0.0;
  primary_voltage 2400.000;
  secondary_voltage 120.000;
  connect_type SINGLE_PHASE_CENTER_TAPPED;
  impedance 3.00000e-05+0.0136000j;
  impedance1 6.00000e-05+0.00680000j;
  impedance2 6.00000e-05+0.00680000j;
}
object transformer_configuration {
  name "xcon_cimxfmrcode_xfmr_652_a_4A";
  power_rating 10000.000;
  powerA_rating 10000.000;
  powerB_rating 0.0;
  powerC_rating 0.0;
  primary_voltage 2400.000;
  secondary_voltage 120.000;
  connect_type SINGLE_PHASE_CENTER_TAPPED;
  impedance 3.00000e-05+0.0136000j;
  impedance1 6.00000e-05+0.00680000j;
  impedance2 6.00000e-05+0.00680000j;
}
object transformer_configuration {
  name "xcon_cimxfmrcode_xfmr_652_a_5A";
  power_rating 10000.000;
  powerA_rating 10000.000;
  powerB_rating 0.0;
  powerC_rating 0.0;
  primary_voltage 2400.000;
  secondary_voltage 120.000;
  connect_type SINGLE_PHASE_CENTER_TAPPED;
  impedance 3.00000e-05+0.0136000j;
  impedance1 6.00000e-05+0.00680000j;
  impedance2 6.00000e-05+0.00680000j;
}
object transformer_configuration {
  name "xcon_cimxfmrcode_xfmr_652_a_2A";
  power_rating 10000.000;
  powerA_rating 10000.000;
  powerB_rating 0.0;
  powerC_rating 0.0;
  primary_voltage 2400.000;
  secondary_voltage 120.000;
  connect_type SINGLE_PHASE_CENTER_TAPPED;
  impedance 3.00000e-05+0.0136000j;
  impedance1 6.00000e-05+0.00680000j;
  impedance2 6.00000e-05+0.00680000j;
}
object transformer_configuration {
  name "xcon_cimxfmrcode_xfmr_652_a_3A";
  power_rating 10000.000;
  powerA_rating 10000.000;
  powerB_rating 0.0;
  powerC_rating 0.0;
  primary_voltage 2400.000;
  secondary_voltage 120.000;
  connect_type SINGLE_PHASE_CENTER_TAPPED;
  impedance 3.00000e-05+0.0136000j;
  impedance1 6.00000e-05+0.00680000j;
  impedance2 6.00000e-05+0.00680000j;
}
object transformer_configuration {
  name "xcon_cimxfmrcode_xfmr_671_b_4B";
  power_rating 10000.000;
  powerA_rating 0.0;
  powerB_rating 10000.000;
  powerC_rating 0.0;
  primary_voltage 2400.000;
  secondary_voltage 120.000;
  connect_type SINGLE_PHASE_CENTER_TAPPED;
  impedance 3.00000e-05+0.0136000j;
  impedance1 6.00000e-05+0.00680000j;
  impedance2 6.00000e-05+0.00680000j;
}
object transformer_configuration {
  name "xcon_cimxfmrcode_xfmr_671_b_5B";
  power_rating 10000.000;
  powerA_rating 0.0;
  powerB_rating 10000.000;
  powerC_rating 0.0;
  primary_voltage 2400.000;
  secondary_voltage 120.000;
  connect_type SINGLE_PHASE_CENTER_TAPPED;
  impedance 3.00000e-05+0.0136000j;
  impedance1 6.00000e-05+0.00680000j;
  impedance2 6.00000e-05+0.00680000j;
}
object transformer_configuration {
  name "xcon_cimxfmrcode_xfmr_633_a_5A";
  power_rating 10000.000;
  powerA_rating 10000.000;
  powerB_rating 0.0;
  powerC_rating 0.0;
  primary_voltage 2400.000;
  secondary_voltage 120.000;
  connect_type SINGLE_PHASE_CENTER_TAPPED;
  impedance 3.00000e-05+0.0136000j;
  impedance1 6.00000e-05+0.00680000j;
  impedance2 6.00000e-05+0.00680000j;
}
object transformer_configuration {
  name "xcon_cimxfmrcode_xfmr_671_b_2B";
  power_rating 10000.000;
  powerA_rating 0.0;
  powerB_rating 10000.000;
  powerC_rating 0.0;
  primary_voltage 2400.000;
  secondary_voltage 120.000;
  connect_type SINGLE_PHASE_CENTER_TAPPED;
  impedance 3.00000e-05+0.0136000j;
  impedance1 6.00000e-05+0.00680000j;
  impedance2 6.00000e-05+0.00680000j;
}
object transformer_configuration {
  name "xcon_cimxfmrcode_xfmr_671_b_3B";
  power_rating 10000.000;
  powerA_rating 0.0;
  powerB_rating 10000.000;
  powerC_rating 0.0;
  primary_voltage 2400.000;
  secondary_voltage 120.000;
  connect_type SINGLE_PHASE_CENTER_TAPPED;
  impedance 3.00000e-05+0.0136000j;
  impedance1 6.00000e-05+0.00680000j;
  impedance2 6.00000e-05+0.00680000j;
}
object transformer_configuration {
  name "xcon_cimxfmrcode_xfmr_633_a_3A";
  power_rating 10000.000;
  powerA_rating 10000.000;
  powerB_rating 0.0;
  powerC_rating 0.0;
  primary_voltage 2400.000;
  secondary_voltage 120.000;
  connect_type SINGLE_PHASE_CENTER_TAPPED;
  impedance 3.00000e-05+0.0136000j;
  impedance1 6.00000e-05+0.00680000j;
  impedance2 6.00000e-05+0.00680000j;
}
object transformer_configuration {
  name "xcon_cimxfmrcode_xfmr_632_c_1C";
  power_rating 10000.000;
  powerA_rating 0.0;
  powerB_rating 0.0;
  powerC_rating 10000.000;
  primary_voltage 2400.000;
  secondary_voltage 120.000;
  connect_type SINGLE_PHASE_CENTER_TAPPED;
  impedance 3.00000e-05+0.0136000j;
  impedance1 6.00000e-05+0.00680000j;
  impedance2 6.00000e-05+0.00680000j;
}
object transformer_configuration {
  name "xcon_cimxfmrcode_xfmr_633_a_4A";
  power_rating 10000.000;
  powerA_rating 10000.000;
  powerB_rating 0.0;
  powerC_rating 0.0;
  primary_voltage 2400.000;
  secondary_voltage 120.000;
  connect_type SINGLE_PHASE_CENTER_TAPPED;
  impedance 3.00000e-05+0.0136000j;
  impedance1 6.00000e-05+0.00680000j;
  impedance2 6.00000e-05+0.00680000j;
}
object transformer_configuration {
  name "xcon_cimxfmrcode_xfmr_671_b_1B";
  power_rating 10000.000;
  powerA_rating 0.0;
  powerB_rating 10000.000;
  powerC_rating 0.0;
  primary_voltage 2400.000;
  secondary_voltage 120.000;
  connect_type SINGLE_PHASE_CENTER_TAPPED;
  impedance 3.00000e-05+0.0136000j;
  impedance1 6.00000e-05+0.00680000j;
  impedance2 6.00000e-05+0.00680000j;
}
object transformer_configuration {
  name "xcon_cimxfmrcode_xfmr_632_c_2C";
  power_rating 10000.000;
  powerA_rating 0.0;
  powerB_rating 0.0;
  powerC_rating 10000.000;
  primary_voltage 2400.000;
  secondary_voltage 120.000;
  connect_type SINGLE_PHASE_CENTER_TAPPED;
  impedance 3.00000e-05+0.0136000j;
  impedance1 6.00000e-05+0.00680000j;
  impedance2 6.00000e-05+0.00680000j;
}
object transformer_configuration {
  name "xcon_cimxfmrcode_xfmr_633_a_1A";
  power_rating 10000.000;
  powerA_rating 10000.000;
  powerB_rating 0.0;
  powerC_rating 0.0;
  primary_voltage 2400.000;
  secondary_voltage 120.000;
  connect_type SINGLE_PHASE_CENTER_TAPPED;
  impedance 3.00000e-05+0.0136000j;
  impedance1 6.00000e-05+0.00680000j;
  impedance2 6.00000e-05+0.00680000j;
}
object transformer_configuration {
  name "xcon_cimxfmrcode_xfmr_632_c_3C";
  power_rating 10000.000;
  powerA_rating 0.0;
  powerB_rating 0.0;
  powerC_rating 10000.000;
  primary_voltage 2400.000;
  secondary_voltage 120.000;
  connect_type SINGLE_PHASE_CENTER_TAPPED;
  impedance 3.00000e-05+0.0136000j;
  impedance1 6.00000e-05+0.00680000j;
  impedance2 6.00000e-05+0.00680000j;
}
object transformer_configuration {
  name "xcon_cimxfmrcode_xfmr_633_a_2A";
  power_rating 10000.000;
  powerA_rating 10000.000;
  powerB_rating 0.0;
  powerC_rating 0.0;
  primary_voltage 2400.000;
  secondary_voltage 120.000;
  connect_type SINGLE_PHASE_CENTER_TAPPED;
  impedance 3.00000e-05+0.0136000j;
  impedance1 6.00000e-05+0.00680000j;
  impedance2 6.00000e-05+0.00680000j;
}
object transformer_configuration {
  name "xcon_cimxfmrcode_xfmr_632_c_4C";
  power_rating 10000.000;
  powerA_rating 0.0;
  powerB_rating 0.0;
  powerC_rating 10000.000;
  primary_voltage 2400.000;
  secondary_voltage 120.000;
  connect_type SINGLE_PHASE_CENTER_TAPPED;
  impedance 3.00000e-05+0.0136000j;
  impedance1 6.00000e-05+0.00680000j;
  impedance2 6.00000e-05+0.00680000j;
}
object transformer_configuration {
  name "xcon_cimxfmrcode_xfmr_632_c_5C";
  power_rating 10000.000;
  powerA_rating 0.0;
  powerB_rating 0.0;
  powerC_rating 10000.000;
  primary_voltage 2400.000;
  secondary_voltage 120.000;
  connect_type SINGLE_PHASE_CENTER_TAPPED;
  impedance 3.00000e-05+0.0136000j;
  impedance1 6.00000e-05+0.00680000j;
  impedance2 6.00000e-05+0.00680000j;
}
object transformer_configuration {
  name "xcon_cimxfmrcode_xfmr_680_a_3A";
  power_rating 10000.000;
  powerA_rating 10000.000;
  powerB_rating 0.0;
  powerC_rating 0.0;
  primary_voltage 2400.000;
  secondary_voltage 120.000;
  connect_type SINGLE_PHASE_CENTER_TAPPED;
  impedance 3.00000e-05+0.0136000j;
  impedance1 6.00000e-05+0.00680000j;
  impedance2 6.00000e-05+0.00680000j;
}
object transformer_configuration {
  name "xcon_cimxfmrcode_xfmr_680_a_4A";
  power_rating 10000.000;
  powerA_rating 10000.000;
  powerB_rating 0.0;
  powerC_rating 0.0;
  primary_voltage 2400.000;
  secondary_voltage 120.000;
  connect_type SINGLE_PHASE_CENTER_TAPPED;
  impedance 3.00000e-05+0.0136000j;
  impedance1 6.00000e-05+0.00680000j;
  impedance2 6.00000e-05+0.00680000j;
}
object transformer_configuration {
  name "xcon_cimxfmrcode_xfmr_680_a_5A";
  power_rating 10000.000;
  powerA_rating 10000.000;
  powerB_rating 0.0;
  powerC_rating 0.0;
  primary_voltage 2400.000;
  secondary_voltage 120.000;
  connect_type SINGLE_PHASE_CENTER_TAPPED;
  impedance 3.00000e-05+0.0136000j;
  impedance1 6.00000e-05+0.00680000j;
  impedance2 6.00000e-05+0.00680000j;
}
object transformer_configuration {
  name "xcon_cimxfmrcode_xfmr_645_c_5C";
  power_rating 10000.000;
  powerA_rating 0.0;
  powerB_rating 0.0;
  powerC_rating 10000.000;
  primary_voltage 2400.000;
  secondary_voltage 120.000;
  connect_type SINGLE_PHASE_CENTER_TAPPED;
  impedance 3.00000e-05+0.0136000j;
  impedance1 6.00000e-05+0.00680000j;
  impedance2 6.00000e-05+0.00680000j;
}
object transformer_configuration {
  name "xcon_cimxfmrcode_xfmr_680_a_1A";
  power_rating 10000.000;
  powerA_rating 10000.000;
  powerB_rating 0.0;
  powerC_rating 0.0;
  primary_voltage 2400.000;
  secondary_voltage 120.000;
  connect_type SINGLE_PHASE_CENTER_TAPPED;
  impedance 3.00000e-05+0.0136000j;
  impedance1 6.00000e-05+0.00680000j;
  impedance2 6.00000e-05+0.00680000j;
}
object transformer_configuration {
  name "xcon_cimxfmrcode_xfmr_645_c_4C";
  power_rating 10000.000;
  powerA_rating 0.0;
  powerB_rating 0.0;
  powerC_rating 10000.000;
  primary_voltage 2400.000;
  secondary_voltage 120.000;
  connect_type SINGLE_PHASE_CENTER_TAPPED;
  impedance 3.00000e-05+0.0136000j;
  impedance1 6.00000e-05+0.00680000j;
  impedance2 6.00000e-05+0.00680000j;
}
object transformer_configuration {
  name "xcon_cimxfmrcode_xfmr_680_a_2A";
  power_rating 10000.000;
  powerA_rating 10000.000;
  powerB_rating 0.0;
  powerC_rating 0.0;
  primary_voltage 2400.000;
  secondary_voltage 120.000;
  connect_type SINGLE_PHASE_CENTER_TAPPED;
  impedance 3.00000e-05+0.0136000j;
  impedance1 6.00000e-05+0.00680000j;
  impedance2 6.00000e-05+0.00680000j;
}
object transformer_configuration {
  name "xcon_cimxfmrcode_xfmr_645_c_3C";
  power_rating 10000.000;
  powerA_rating 0.0;
  powerB_rating 0.0;
  powerC_rating 10000.000;
  primary_voltage 2400.000;
  secondary_voltage 120.000;
  connect_type SINGLE_PHASE_CENTER_TAPPED;
  impedance 3.00000e-05+0.0136000j;
  impedance1 6.00000e-05+0.00680000j;
  impedance2 6.00000e-05+0.00680000j;
}
object transformer_configuration {
  name "xcon_cimxfmrcode_xfmr_675_c_5C";
  power_rating 10000.000;
  powerA_rating 0.0;
  powerB_rating 0.0;
  powerC_rating 10000.000;
  primary_voltage 2400.000;
  secondary_voltage 120.000;
  connect_type SINGLE_PHASE_CENTER_TAPPED;
  impedance 3.00000e-05+0.0136000j;
  impedance1 6.00000e-05+0.00680000j;
  impedance2 6.00000e-05+0.00680000j;
}
object transformer_configuration {
  name "xcon_cimxfmrcode_xfmr_645_c_2C";
  power_rating 10000.000;
  powerA_rating 0.0;
  powerB_rating 0.0;
  powerC_rating 10000.000;
  primary_voltage 2400.000;
  secondary_voltage 120.000;
  connect_type SINGLE_PHASE_CENTER_TAPPED;
  impedance 3.00000e-05+0.0136000j;
  impedance1 6.00000e-05+0.00680000j;
  impedance2 6.00000e-05+0.00680000j;
}
object transformer_configuration {
  name "xcon_cimxfmrcode_xfmr_645_c_1C";
  power_rating 10000.000;
  powerA_rating 0.0;
  powerB_rating 0.0;
  powerC_rating 10000.000;
  primary_voltage 2400.000;
  secondary_voltage 120.000;
  connect_type SINGLE_PHASE_CENTER_TAPPED;
  impedance 3.00000e-05+0.0136000j;
  impedance1 6.00000e-05+0.00680000j;
  impedance2 6.00000e-05+0.00680000j;
}
object transformer_configuration {
  name "xcon_cimxfmrcode_xfmr_675_c_3C";
  power_rating 10000.000;
  powerA_rating 0.0;
  powerB_rating 0.0;
  powerC_rating 10000.000;
  primary_voltage 2400.000;
  secondary_voltage 120.000;
  connect_type SINGLE_PHASE_CENTER_TAPPED;
  impedance 3.00000e-05+0.0136000j;
  impedance1 6.00000e-05+0.00680000j;
  impedance2 6.00000e-05+0.00680000j;
}
object transformer_configuration {
  name "xcon_cimxfmrcode_xfmr_675_c_4C";
  power_rating 10000.000;
  powerA_rating 0.0;
  powerB_rating 0.0;
  powerC_rating 10000.000;
  primary_voltage 2400.000;
  secondary_voltage 120.000;
  connect_type SINGLE_PHASE_CENTER_TAPPED;
  impedance 3.00000e-05+0.0136000j;
  impedance1 6.00000e-05+0.00680000j;
  impedance2 6.00000e-05+0.00680000j;
}
object transformer_configuration {
  name "xcon_cimxfmrcode_xfmr_675_c_1C";
  power_rating 10000.000;
  powerA_rating 0.0;
  powerB_rating 0.0;
  powerC_rating 10000.000;
  primary_voltage 2400.000;
  secondary_voltage 120.000;
  connect_type SINGLE_PHASE_CENTER_TAPPED;
  impedance 3.00000e-05+0.0136000j;
  impedance1 6.00000e-05+0.00680000j;
  impedance2 6.00000e-05+0.00680000j;
}
object transformer_configuration {
  name "xcon_cimxfmrcode_xfmr_692_c_5C";
  power_rating 10000.000;
  powerA_rating 0.0;
  powerB_rating 0.0;
  powerC_rating 10000.000;
  primary_voltage 2400.000;
  secondary_voltage 120.000;
  connect_type SINGLE_PHASE_CENTER_TAPPED;
  impedance 3.00000e-05+0.0136000j;
  impedance1 6.00000e-05+0.00680000j;
  impedance2 6.00000e-05+0.00680000j;
}
object transformer_configuration {
  name "xcon_cimxfmrcode_xfmr_675_c_2C";
  power_rating 10000.000;
  powerA_rating 0.0;
  powerB_rating 0.0;
  powerC_rating 10000.000;
  primary_voltage 2400.000;
  secondary_voltage 120.000;
  connect_type SINGLE_PHASE_CENTER_TAPPED;
  impedance 3.00000e-05+0.0136000j;
  impedance1 6.00000e-05+0.00680000j;
  impedance2 6.00000e-05+0.00680000j;
}
object transformer_configuration {
  name "xcon_cimxfmrcode_xfmr_692_c_4C";
  power_rating 10000.000;
  powerA_rating 0.0;
  powerB_rating 0.0;
  powerC_rating 10000.000;
  primary_voltage 2400.000;
  secondary_voltage 120.000;
  connect_type SINGLE_PHASE_CENTER_TAPPED;
  impedance 3.00000e-05+0.0136000j;
  impedance1 6.00000e-05+0.00680000j;
  impedance2 6.00000e-05+0.00680000j;
}
object transformer_configuration {
  name "xcon_cimxfmrcode_xfmr_692_c_1C";
  power_rating 10000.000;
  powerA_rating 0.0;
  powerB_rating 0.0;
  powerC_rating 10000.000;
  primary_voltage 2400.000;
  secondary_voltage 120.000;
  connect_type SINGLE_PHASE_CENTER_TAPPED;
  impedance 3.00000e-05+0.0136000j;
  impedance1 6.00000e-05+0.00680000j;
  impedance2 6.00000e-05+0.00680000j;
}
object transformer_configuration {
  name "xcon_cimxfmrcode_xfmr_692_c_3C";
  power_rating 10000.000;
  powerA_rating 0.0;
  powerB_rating 0.0;
  powerC_rating 10000.000;
  primary_voltage 2400.000;
  secondary_voltage 120.000;
  connect_type SINGLE_PHASE_CENTER_TAPPED;
  impedance 3.00000e-05+0.0136000j;
  impedance1 6.00000e-05+0.00680000j;
  impedance2 6.00000e-05+0.00680000j;
}
object transformer_configuration {
  name "xcon_cimxfmrcode_xfmr_692_c_2C";
  power_rating 10000.000;
  powerA_rating 0.0;
  powerB_rating 0.0;
  powerC_rating 10000.000;
  primary_voltage 2400.000;
  secondary_voltage 120.000;
  connect_type SINGLE_PHASE_CENTER_TAPPED;
  impedance 3.00000e-05+0.0136000j;
  impedance1 6.00000e-05+0.00680000j;
  impedance2 6.00000e-05+0.00680000j;
}
object transformer_configuration {
  name "xcon_cimxfmrcode_xfmr_671_c_5C";
  power_rating 10000.000;
  powerA_rating 0.0;
  powerB_rating 0.0;
  powerC_rating 10000.000;
  primary_voltage 2400.000;
  secondary_voltage 120.000;
  connect_type SINGLE_PHASE_CENTER_TAPPED;
  impedance 3.00000e-05+0.0136000j;
  impedance1 6.00000e-05+0.00680000j;
  impedance2 6.00000e-05+0.00680000j;
}
object transformer_configuration {
  name "xcon_cimxfmrcode_xfmr_684_a_4A";
  power_rating 10000.000;
  powerA_rating 10000.000;
  powerB_rating 0.0;
  powerC_rating 0.0;
  primary_voltage 2400.000;
  secondary_voltage 120.000;
  connect_type SINGLE_PHASE_CENTER_TAPPED;
  impedance 3.00000e-05+0.0136000j;
  impedance1 6.00000e-05+0.00680000j;
  impedance2 6.00000e-05+0.00680000j;
}
object transformer_configuration {
  name "xcon_cimxfmrcode_xfmr_684_a_3A";
  power_rating 10000.000;
  powerA_rating 10000.000;
  powerB_rating 0.0;
  powerC_rating 0.0;
  primary_voltage 2400.000;
  secondary_voltage 120.000;
  connect_type SINGLE_PHASE_CENTER_TAPPED;
  impedance 3.00000e-05+0.0136000j;
  impedance1 6.00000e-05+0.00680000j;
  impedance2 6.00000e-05+0.00680000j;
}
object transformer_configuration {
  name "xcon_cimxfmrcode_xfmr_671_c_3C";
  power_rating 10000.000;
  powerA_rating 0.0;
  powerB_rating 0.0;
  powerC_rating 10000.000;
  primary_voltage 2400.000;
  secondary_voltage 120.000;
  connect_type SINGLE_PHASE_CENTER_TAPPED;
  impedance 3.00000e-05+0.0136000j;
  impedance1 6.00000e-05+0.00680000j;
  impedance2 6.00000e-05+0.00680000j;
}
object transformer_configuration {
  name "xcon_cimxfmrcode_xfmr_671_c_4C";
  power_rating 10000.000;
  powerA_rating 0.0;
  powerB_rating 0.0;
  powerC_rating 10000.000;
  primary_voltage 2400.000;
  secondary_voltage 120.000;
  connect_type SINGLE_PHASE_CENTER_TAPPED;
  impedance 3.00000e-05+0.0136000j;
  impedance1 6.00000e-05+0.00680000j;
  impedance2 6.00000e-05+0.00680000j;
}
object transformer_configuration {
  name "xcon_cimxfmrcode_xfmr_684_a_5A";
  power_rating 10000.000;
  powerA_rating 10000.000;
  powerB_rating 0.0;
  powerC_rating 0.0;
  primary_voltage 2400.000;
  secondary_voltage 120.000;
  connect_type SINGLE_PHASE_CENTER_TAPPED;
  impedance 3.00000e-05+0.0136000j;
  impedance1 6.00000e-05+0.00680000j;
  impedance2 6.00000e-05+0.00680000j;
}
object transformer_configuration {
  name "xcon_cimxfmrcode_xfmr_671_c_1C";
  power_rating 10000.000;
  powerA_rating 0.0;
  powerB_rating 0.0;
  powerC_rating 10000.000;
  primary_voltage 2400.000;
  secondary_voltage 120.000;
  connect_type SINGLE_PHASE_CENTER_TAPPED;
  impedance 3.00000e-05+0.0136000j;
  impedance1 6.00000e-05+0.00680000j;
  impedance2 6.00000e-05+0.00680000j;
}
object transformer_configuration {
  name "xcon_cimxfmrcode_xfmr_671_c_2C";
  power_rating 10000.000;
  powerA_rating 0.0;
  powerB_rating 0.0;
  powerC_rating 10000.000;
  primary_voltage 2400.000;
  secondary_voltage 120.000;
  connect_type SINGLE_PHASE_CENTER_TAPPED;
  impedance 3.00000e-05+0.0136000j;
  impedance1 6.00000e-05+0.00680000j;
  impedance2 6.00000e-05+0.00680000j;
}
object transformer_configuration {
  name "xcon_cimxfmrcode_xfmr_632_b_1B";
  power_rating 10000.000;
  powerA_rating 0.0;
  powerB_rating 10000.000;
  powerC_rating 0.0;
  primary_voltage 2400.000;
  secondary_voltage 120.000;
  connect_type SINGLE_PHASE_CENTER_TAPPED;
  impedance 3.00000e-05+0.0136000j;
  impedance1 6.00000e-05+0.00680000j;
  impedance2 6.00000e-05+0.00680000j;
}
object transformer_configuration {
  name "xcon_cimxfmrcode_xfmr_684_a_2A";
  power_rating 10000.000;
  powerA_rating 10000.000;
  powerB_rating 0.0;
  powerC_rating 0.0;
  primary_voltage 2400.000;
  secondary_voltage 120.000;
  connect_type SINGLE_PHASE_CENTER_TAPPED;
  impedance 3.00000e-05+0.0136000j;
  impedance1 6.00000e-05+0.00680000j;
  impedance2 6.00000e-05+0.00680000j;
}
object transformer_configuration {
  name "xcon_cimxfmrcode_xfmr_632_b_2B";
  power_rating 10000.000;
  powerA_rating 0.0;
  powerB_rating 10000.000;
  powerC_rating 0.0;
  primary_voltage 2400.000;
  secondary_voltage 120.000;
  connect_type SINGLE_PHASE_CENTER_TAPPED;
  impedance 3.00000e-05+0.0136000j;
  impedance1 6.00000e-05+0.00680000j;
  impedance2 6.00000e-05+0.00680000j;
}
object transformer_configuration {
  name "xcon_cimxfmrcode_xfmr_684_a_1A";
  power_rating 10000.000;
  powerA_rating 10000.000;
  powerB_rating 0.0;
  powerC_rating 0.0;
  primary_voltage 2400.000;
  secondary_voltage 120.000;
  connect_type SINGLE_PHASE_CENTER_TAPPED;
  impedance 3.00000e-05+0.0136000j;
  impedance1 6.00000e-05+0.00680000j;
  impedance2 6.00000e-05+0.00680000j;
}
object transformer_configuration {
  name "xcon_cimxfmrcode_xfmr_632_b_3B";
  power_rating 10000.000;
  powerA_rating 0.0;
  powerB_rating 10000.000;
  powerC_rating 0.0;
  primary_voltage 2400.000;
  secondary_voltage 120.000;
  connect_type SINGLE_PHASE_CENTER_TAPPED;
  impedance 3.00000e-05+0.0136000j;
  impedance1 6.00000e-05+0.00680000j;
  impedance2 6.00000e-05+0.00680000j;
}
object transformer_configuration {
  name "xcon_cimxfmrcode_xfmr_632_b_4B";
  power_rating 10000.000;
  powerA_rating 0.0;
  powerB_rating 10000.000;
  powerC_rating 0.0;
  primary_voltage 2400.000;
  secondary_voltage 120.000;
  connect_type SINGLE_PHASE_CENTER_TAPPED;
  impedance 3.00000e-05+0.0136000j;
  impedance1 6.00000e-05+0.00680000j;
  impedance2 6.00000e-05+0.00680000j;
}
object transformer_configuration {
  name "xcon_cimxfmrcode_xfmr_632_b_5B";
  power_rating 10000.000;
  powerA_rating 0.0;
  powerB_rating 10000.000;
  powerC_rating 0.0;
  primary_voltage 2400.000;
  secondary_voltage 120.000;
  connect_type SINGLE_PHASE_CENTER_TAPPED;
  impedance 3.00000e-05+0.0136000j;
  impedance1 6.00000e-05+0.00680000j;
  impedance2 6.00000e-05+0.00680000j;
}
object transformer_configuration {
  name "xcon_cimxfmrcode_xfmr_680_b_2B";
  power_rating 10000.000;
  powerA_rating 0.0;
  powerB_rating 10000.000;
  powerC_rating 0.0;
  primary_voltage 2400.000;
  secondary_voltage 120.000;
  connect_type SINGLE_PHASE_CENTER_TAPPED;
  impedance 3.00000e-05+0.0136000j;
  impedance1 6.00000e-05+0.00680000j;
  impedance2 6.00000e-05+0.00680000j;
}
object transformer_configuration {
  name "xcon_cimxfmrcode_xfmr_680_b_3B";
  power_rating 10000.000;
  powerA_rating 0.0;
  powerB_rating 10000.000;
  powerC_rating 0.0;
  primary_voltage 2400.000;
  secondary_voltage 120.000;
  connect_type SINGLE_PHASE_CENTER_TAPPED;
  impedance 3.00000e-05+0.0136000j;
  impedance1 6.00000e-05+0.00680000j;
  impedance2 6.00000e-05+0.00680000j;
}
object transformer_configuration {
  name "xcon_cimxfmrcode_xfmr_680_b_4B";
  power_rating 10000.000;
  powerA_rating 0.0;
  powerB_rating 10000.000;
  powerC_rating 0.0;
  primary_voltage 2400.000;
  secondary_voltage 120.000;
  connect_type SINGLE_PHASE_CENTER_TAPPED;
  impedance 3.00000e-05+0.0136000j;
  impedance1 6.00000e-05+0.00680000j;
  impedance2 6.00000e-05+0.00680000j;
}
object transformer_configuration {
  name "xcon_cimxfmrcode_xfmr_680_b_5B";
  power_rating 10000.000;
  powerA_rating 0.0;
  powerB_rating 10000.000;
  powerC_rating 0.0;
  primary_voltage 2400.000;
  secondary_voltage 120.000;
  connect_type SINGLE_PHASE_CENTER_TAPPED;
  impedance 3.00000e-05+0.0136000j;
  impedance1 6.00000e-05+0.00680000j;
  impedance2 6.00000e-05+0.00680000j;
}
object transformer_configuration {
  name "xcon_cimxfmrcode_xfmr_680_b_1B";
  power_rating 10000.000;
  powerA_rating 0.0;
  powerB_rating 10000.000;
  powerC_rating 0.0;
  primary_voltage 2400.000;
  secondary_voltage 120.000;
  connect_type SINGLE_PHASE_CENTER_TAPPED;
  impedance 3.00000e-05+0.0136000j;
  impedance1 6.00000e-05+0.00680000j;
  impedance2 6.00000e-05+0.00680000j;
}
object transformer_configuration {
  name "xcon_cimxfmrcode_xfmr_675_b_4B";
  power_rating 10000.000;
  powerA_rating 0.0;
  powerB_rating 10000.000;
  powerC_rating 0.0;
  primary_voltage 2400.000;
  secondary_voltage 120.000;
  connect_type SINGLE_PHASE_CENTER_TAPPED;
  impedance 3.00000e-05+0.0136000j;
  impedance1 6.00000e-05+0.00680000j;
  impedance2 6.00000e-05+0.00680000j;
}
object transformer_configuration {
  name "xcon_cimxfmrcode_xfmr_675_b_5B";
  power_rating 10000.000;
  powerA_rating 0.0;
  powerB_rating 10000.000;
  powerC_rating 0.0;
  primary_voltage 2400.000;
  secondary_voltage 120.000;
  connect_type SINGLE_PHASE_CENTER_TAPPED;
  impedance 3.00000e-05+0.0136000j;
  impedance1 6.00000e-05+0.00680000j;
  impedance2 6.00000e-05+0.00680000j;
}
object transformer_configuration {
  name "xcon_cimxfmrcode_xfmr_675_b_2B";
  power_rating 10000.000;
  powerA_rating 0.0;
  powerB_rating 10000.000;
  powerC_rating 0.0;
  primary_voltage 2400.000;
  secondary_voltage 120.000;
  connect_type SINGLE_PHASE_CENTER_TAPPED;
  impedance 3.00000e-05+0.0136000j;
  impedance1 6.00000e-05+0.00680000j;
  impedance2 6.00000e-05+0.00680000j;
}
object transformer_configuration {
  name "xcon_cimxfmrcode_xfmr_675_b_3B";
  power_rating 10000.000;
  powerA_rating 0.0;
  powerB_rating 10000.000;
  powerC_rating 0.0;
  primary_voltage 2400.000;
  secondary_voltage 120.000;
  connect_type SINGLE_PHASE_CENTER_TAPPED;
  impedance 3.00000e-05+0.0136000j;
  impedance1 6.00000e-05+0.00680000j;
  impedance2 6.00000e-05+0.00680000j;
}
object transformer_configuration {
  name "xcon_cimxfmrcode_xfmr_675_b_1B";
  power_rating 10000.000;
  powerA_rating 0.0;
  powerB_rating 10000.000;
  powerC_rating 0.0;
  primary_voltage 2400.000;
  secondary_voltage 120.000;
  connect_type SINGLE_PHASE_CENTER_TAPPED;
  impedance 3.00000e-05+0.0136000j;
  impedance1 6.00000e-05+0.00680000j;
  impedance2 6.00000e-05+0.00680000j;
}
object transformer_configuration {
  name "xcon_cimxfmrcode_xfmr_633_c_5C";
  power_rating 10000.000;
  powerA_rating 0.0;
  powerB_rating 0.0;
  powerC_rating 10000.000;
  primary_voltage 2400.000;
  secondary_voltage 120.000;
  connect_type SINGLE_PHASE_CENTER_TAPPED;
  impedance 3.00000e-05+0.0136000j;
  impedance1 6.00000e-05+0.00680000j;
  impedance2 6.00000e-05+0.00680000j;
}
object transformer_configuration {
  name "xcon_cimxfmrcode_xfmr_692_a_1A";
  power_rating 10000.000;
  powerA_rating 10000.000;
  powerB_rating 0.0;
  powerC_rating 0.0;
  primary_voltage 2400.000;
  secondary_voltage 120.000;
  connect_type SINGLE_PHASE_CENTER_TAPPED;
  impedance 3.00000e-05+0.0136000j;
  impedance1 6.00000e-05+0.00680000j;
  impedance2 6.00000e-05+0.00680000j;
}
object transformer_configuration {
  name "xcon_subxfmr";
  power_rating 1000000.000;
  primary_voltage 115000.000;
  secondary_voltage 4160.000;
  connect_type DELTA_GWYE;
  resistance 0.000010;
  reactance 0.000080;
}
object transformer_configuration {
  name "xcon_cimxfmrcode_xfmr_633_c_3C";
  power_rating 10000.000;
  powerA_rating 0.0;
  powerB_rating 0.0;
  powerC_rating 10000.000;
  primary_voltage 2400.000;
  secondary_voltage 120.000;
  connect_type SINGLE_PHASE_CENTER_TAPPED;
  impedance 3.00000e-05+0.0136000j;
  impedance1 6.00000e-05+0.00680000j;
  impedance2 6.00000e-05+0.00680000j;
}
object transformer_configuration {
  name "xcon_cimxfmrcode_xfmr_632_a_1A";
  power_rating 10000.000;
  powerA_rating 10000.000;
  powerB_rating 0.0;
  powerC_rating 0.0;
  primary_voltage 2400.000;
  secondary_voltage 120.000;
  connect_type SINGLE_PHASE_CENTER_TAPPED;
  impedance 3.00000e-05+0.0136000j;
  impedance1 6.00000e-05+0.00680000j;
  impedance2 6.00000e-05+0.00680000j;
}
object transformer_configuration {
  name "xcon_cimxfmrcode_xfmr_633_c_4C";
  power_rating 10000.000;
  powerA_rating 0.0;
  powerB_rating 0.0;
  powerC_rating 10000.000;
  primary_voltage 2400.000;
  secondary_voltage 120.000;
  connect_type SINGLE_PHASE_CENTER_TAPPED;
  impedance 3.00000e-05+0.0136000j;
  impedance1 6.00000e-05+0.00680000j;
  impedance2 6.00000e-05+0.00680000j;
}
object transformer_configuration {
  name "xcon_cimxfmrcode_xfmr_632_a_2A";
  power_rating 10000.000;
  powerA_rating 10000.000;
  powerB_rating 0.0;
  powerC_rating 0.0;
  primary_voltage 2400.000;
  secondary_voltage 120.000;
  connect_type SINGLE_PHASE_CENTER_TAPPED;
  impedance 3.00000e-05+0.0136000j;
  impedance1 6.00000e-05+0.00680000j;
  impedance2 6.00000e-05+0.00680000j;
}
object transformer_configuration {
  name "xcon_cimxfmrcode_xfmr_633_c_1C";
  power_rating 10000.000;
  powerA_rating 0.0;
  powerB_rating 0.0;
  powerC_rating 10000.000;
  primary_voltage 2400.000;
  secondary_voltage 120.000;
  connect_type SINGLE_PHASE_CENTER_TAPPED;
  impedance 3.00000e-05+0.0136000j;
  impedance1 6.00000e-05+0.00680000j;
  impedance2 6.00000e-05+0.00680000j;
}
object transformer_configuration {
  name "xcon_cimxfmrcode_xfmr_632_a_3A";
  power_rating 10000.000;
  powerA_rating 10000.000;
  powerB_rating 0.0;
  powerC_rating 0.0;
  primary_voltage 2400.000;
  secondary_voltage 120.000;
  connect_type SINGLE_PHASE_CENTER_TAPPED;
  impedance 3.00000e-05+0.0136000j;
  impedance1 6.00000e-05+0.00680000j;
  impedance2 6.00000e-05+0.00680000j;
}
object transformer_configuration {
  name "xcon_cimxfmrcode_xfmr_633_c_2C";
  power_rating 10000.000;
  powerA_rating 0.0;
  powerB_rating 0.0;
  powerC_rating 10000.000;
  primary_voltage 2400.000;
  secondary_voltage 120.000;
  connect_type SINGLE_PHASE_CENTER_TAPPED;
  impedance 3.00000e-05+0.0136000j;
  impedance1 6.00000e-05+0.00680000j;
  impedance2 6.00000e-05+0.00680000j;
}
object transformer_configuration {
  name "xcon_cimxfmrcode_xfmr_632_a_4A";
  power_rating 10000.000;
  powerA_rating 10000.000;
  powerB_rating 0.0;
  powerC_rating 0.0;
  primary_voltage 2400.000;
  secondary_voltage 120.000;
  connect_type SINGLE_PHASE_CENTER_TAPPED;
  impedance 3.00000e-05+0.0136000j;
  impedance1 6.00000e-05+0.00680000j;
  impedance2 6.00000e-05+0.00680000j;
}
object transformer_configuration {
  name "xcon_cimxfmrcode_xfmr_680_c_5C";
  power_rating 10000.000;
  powerA_rating 0.0;
  powerB_rating 0.0;
  powerC_rating 10000.000;
  primary_voltage 2400.000;
  secondary_voltage 120.000;
  connect_type SINGLE_PHASE_CENTER_TAPPED;
  impedance 3.00000e-05+0.0136000j;
  impedance1 6.00000e-05+0.00680000j;
  impedance2 6.00000e-05+0.00680000j;
}
object transformer_configuration {
  name "xcon_cimxfmrcode_xfmr_632_a_5A";
  power_rating 10000.000;
  powerA_rating 10000.000;
  powerB_rating 0.0;
  powerC_rating 0.0;
  primary_voltage 2400.000;
  secondary_voltage 120.000;
  connect_type SINGLE_PHASE_CENTER_TAPPED;
  impedance 3.00000e-05+0.0136000j;
  impedance1 6.00000e-05+0.00680000j;
  impedance2 6.00000e-05+0.00680000j;
}
object transformer_configuration {
  name "xcon_cimxfmrcode_xfmr_680_c_1C";
  power_rating 10000.000;
  powerA_rating 0.0;
  powerB_rating 0.0;
  powerC_rating 10000.000;
  primary_voltage 2400.000;
  secondary_voltage 120.000;
  connect_type SINGLE_PHASE_CENTER_TAPPED;
  impedance 3.00000e-05+0.0136000j;
  impedance1 6.00000e-05+0.00680000j;
  impedance2 6.00000e-05+0.00680000j;
}
object transformer_configuration {
  name "xcon_cimxfmrcode_xfmr_680_c_2C";
  power_rating 10000.000;
  powerA_rating 0.0;
  powerB_rating 0.0;
  powerC_rating 10000.000;
  primary_voltage 2400.000;
  secondary_voltage 120.000;
  connect_type SINGLE_PHASE_CENTER_TAPPED;
  impedance 3.00000e-05+0.0136000j;
  impedance1 6.00000e-05+0.00680000j;
  impedance2 6.00000e-05+0.00680000j;
}
object transformer_configuration {
  name "xcon_cimxfmrcode_xfmr_680_c_3C";
  power_rating 10000.000;
  powerA_rating 0.0;
  powerB_rating 0.0;
  powerC_rating 10000.000;
  primary_voltage 2400.000;
  secondary_voltage 120.000;
  connect_type SINGLE_PHASE_CENTER_TAPPED;
  impedance 3.00000e-05+0.0136000j;
  impedance1 6.00000e-05+0.00680000j;
  impedance2 6.00000e-05+0.00680000j;
}
object transformer_configuration {
  name "xcon_cimxfmrcode_xfmr_680_c_4C";
  power_rating 10000.000;
  powerA_rating 0.0;
  powerB_rating 0.0;
  powerC_rating 10000.000;
  primary_voltage 2400.000;
  secondary_voltage 120.000;
  connect_type SINGLE_PHASE_CENTER_TAPPED;
  impedance 3.00000e-05+0.0136000j;
  impedance1 6.00000e-05+0.00680000j;
  impedance2 6.00000e-05+0.00680000j;
}
object transformer_configuration {
  name "xcon_cimxfmrcode_xfmr_675_a_5A";
  power_rating 10000.000;
  powerA_rating 10000.000;
  powerB_rating 0.0;
  powerC_rating 0.0;
  primary_voltage 2400.000;
  secondary_voltage 120.000;
  connect_type SINGLE_PHASE_CENTER_TAPPED;
  impedance 3.00000e-05+0.0136000j;
  impedance1 6.00000e-05+0.00680000j;
  impedance2 6.00000e-05+0.00680000j;
}
object transformer_configuration {
  name "xcon_cimxfmrcode_xfmr_675_a_3A";
  power_rating 10000.000;
  powerA_rating 10000.000;
  powerB_rating 0.0;
  powerC_rating 0.0;
  primary_voltage 2400.000;
  secondary_voltage 120.000;
  connect_type SINGLE_PHASE_CENTER_TAPPED;
  impedance 3.00000e-05+0.0136000j;
  impedance1 6.00000e-05+0.00680000j;
  impedance2 6.00000e-05+0.00680000j;
}
object transformer_configuration {
  name "xcon_cimxfmrcode_xfmr_675_a_4A";
  power_rating 10000.000;
  powerA_rating 10000.000;
  powerB_rating 0.0;
  powerC_rating 0.0;
  primary_voltage 2400.000;
  secondary_voltage 120.000;
  connect_type SINGLE_PHASE_CENTER_TAPPED;
  impedance 3.00000e-05+0.0136000j;
  impedance1 6.00000e-05+0.00680000j;
  impedance2 6.00000e-05+0.00680000j;
}
object transformer_configuration {
  name "xcon_cimxfmrcode_xfmr_675_a_1A";
  power_rating 10000.000;
  powerA_rating 10000.000;
  powerB_rating 0.0;
  powerC_rating 0.0;
  primary_voltage 2400.000;
  secondary_voltage 120.000;
  connect_type SINGLE_PHASE_CENTER_TAPPED;
  impedance 3.00000e-05+0.0136000j;
  impedance1 6.00000e-05+0.00680000j;
  impedance2 6.00000e-05+0.00680000j;
}
object transformer_configuration {
  name "xcon_cimxfmrcode_xfmr_675_a_2A";
  power_rating 10000.000;
  powerA_rating 10000.000;
  powerB_rating 0.0;
  powerC_rating 0.0;
  primary_voltage 2400.000;
  secondary_voltage 120.000;
  connect_type SINGLE_PHASE_CENTER_TAPPED;
  impedance 3.00000e-05+0.0136000j;
  impedance1 6.00000e-05+0.00680000j;
  impedance2 6.00000e-05+0.00680000j;
}
object transformer_configuration {
  name "xcon_cimxfmrcode_xfmr_692_a_3A";
  power_rating 10000.000;
  powerA_rating 10000.000;
  powerB_rating 0.0;
  powerC_rating 0.0;
  primary_voltage 2400.000;
  secondary_voltage 120.000;
  connect_type SINGLE_PHASE_CENTER_TAPPED;
  impedance 3.00000e-05+0.0136000j;
  impedance1 6.00000e-05+0.00680000j;
  impedance2 6.00000e-05+0.00680000j;
}
object transformer_configuration {
  name "xcon_cimxfmrcode_xfmr_692_a_2A";
  power_rating 10000.000;
  powerA_rating 10000.000;
  powerB_rating 0.0;
  powerC_rating 0.0;
  primary_voltage 2400.000;
  secondary_voltage 120.000;
  connect_type SINGLE_PHASE_CENTER_TAPPED;
  impedance 3.00000e-05+0.0136000j;
  impedance1 6.00000e-05+0.00680000j;
  impedance2 6.00000e-05+0.00680000j;
}
object transformer_configuration {
  name "xcon_cimxfmrcode_xfmr_692_a_5A";
  power_rating 10000.000;
  powerA_rating 10000.000;
  powerB_rating 0.0;
  powerC_rating 0.0;
  primary_voltage 2400.000;
  secondary_voltage 120.000;
  connect_type SINGLE_PHASE_CENTER_TAPPED;
  impedance 3.00000e-05+0.0136000j;
  impedance1 6.00000e-05+0.00680000j;
  impedance2 6.00000e-05+0.00680000j;
}
object transformer_configuration {
  name "xcon_cimxfmrcode_xfmr_692_a_4A";
  power_rating 10000.000;
  powerA_rating 10000.000;
  powerB_rating 0.0;
  powerC_rating 0.0;
  primary_voltage 2400.000;
  secondary_voltage 120.000;
  connect_type SINGLE_PHASE_CENTER_TAPPED;
  impedance 3.00000e-05+0.0136000j;
  impedance1 6.00000e-05+0.00680000j;
  impedance2 6.00000e-05+0.00680000j;
}
object capacitor {
  name "cap_cap1";
  parent "n675";
  phases ABCN;
  phases_connected ABCN;
  cap_nominal_voltage 1385.64;
  nominal_voltage 1385.64;
  capacitor_A 300000.00;
  switchA CLOSED;
  capacitor_B 300000.00;
  switchB CLOSED;
  capacitor_C 300000.00;
  switchC CLOSED;
}
object capacitor {
  name "cap_cap2";
  parent "n675";
  phases ABCN;
  phases_connected ABCN;
  cap_nominal_voltage 1385.64;
  nominal_voltage 1385.64;
  capacitor_A 249999.99;
  switchA CLOSED;
  capacitor_B 249999.99;
  switchB CLOSED;
  capacitor_C 249999.99;
  switchC CLOSED;
}
object overhead_line {
  name "line_ol_632_b_xfmr_632_b_2";
  from "meter_632_b";
  to "xfmr_meter_632_b_2";
  phases B;
  length 100.0000;
  continuous_rating_B 400.00;
  emergency_rating_B 600.00;
  configuration "lcon_1p_oh_code9_B";
}
object overhead_line {
  name "line_ol_632_b_xfmr_632_b_3";
  from "meter_632_b";
  to "xfmr_meter_632_b_3";
  phases B;
  length 100.0000;
  continuous_rating_B 400.00;
  emergency_rating_B 600.00;
  configuration "lcon_1p_oh_code9_B";
}
object overhead_line {
  name "line_ol_632_b_xfmr_632_b_4";
  from "meter_632_b";
  to "xfmr_meter_632_b_4";
  phases B;
  length 100.0000;
  continuous_rating_B 400.00;
  emergency_rating_B 600.00;
  configuration "lcon_1p_oh_code9_B";
}
object overhead_line {
  name "line_ol_632_b_xfmr_632_b_5";
  from "meter_632_b";
  to "xfmr_meter_632_b_5";
  phases B;
  length 100.0000;
  continuous_rating_B 400.00;
  emergency_rating_B 600.00;
  configuration "lcon_1p_oh_code9_B";
}
object overhead_line {
  name "line_ol_632_b_xfmr_632_b_1";
  from "meter_632_b";
  to "xfmr_meter_632_b_1";
  phases B;
  length 100.0000;
  continuous_rating_B 400.00;
  emergency_rating_B 600.00;
  configuration "lcon_1p_oh_code9_B";
}
object triplex_line {
  name "tpx_trip_line_645_b_h_5";
  from "trip_node_645_b_1";
  to "trip_load_645_b_h_5";
  phases BS;
  length 100.0000;
  continuous_rating_B 400.00;
  emergency_rating_B 600.00;
  configuration "tcon_2p_code10_12";
}
object triplex_line {
  name "tpx_trip_line_645_b_h_6";
  from "trip_node_645_b_1";
  to "trip_load_645_b_h_6";
  phases BS;
  length 100.0000;
  continuous_rating_B 400.00;
  emergency_rating_B 600.00;
  configuration "tcon_2p_code10_12";
}
object triplex_line {
  name "tpx_trip_line_645_b_h_7";
  from "trip_node_645_b_1";
  to "trip_load_645_b_h_7";
  phases BS;
  length 100.0000;
  continuous_rating_B 400.00;
  emergency_rating_B 600.00;
  configuration "tcon_2p_code10_12";
}
object triplex_line {
  name "tpx_trip_line_645_b_h_8";
  from "trip_node_645_b_1";
  to "trip_load_645_b_h_8";
  phases BS;
  length 100.0000;
  continuous_rating_B 400.00;
  emergency_rating_B 600.00;
  configuration "tcon_2p_code10_12";
}
object triplex_line {
  name "tpx_trip_line_645_b_h_9";
  from "trip_node_645_b_2";
  to "trip_load_645_b_h_9";
  phases BS;
  length 100.0000;
  continuous_rating_B 400.00;
  emergency_rating_B 600.00;
  configuration "tcon_2p_code10_12";
}
object triplex_line {
  name "tpx_trip_line_645_b_h_1";
  from "trip_node_645_b_1";
  to "trip_load_645_b_h_1";
  phases BS;
  length 100.0000;
  continuous_rating_B 400.00;
  emergency_rating_B 600.00;
  configuration "tcon_2p_code10_12";
}
object triplex_line {
  name "tpx_trip_line_645_b_h_2";
  from "trip_node_645_b_1";
  to "trip_load_645_b_h_2";
  phases BS;
  length 100.0000;
  continuous_rating_B 400.00;
  emergency_rating_B 600.00;
  configuration "tcon_2p_code10_12";
}
object triplex_line {
  name "tpx_trip_line_645_b_h_3";
  from "trip_node_645_b_1";
  to "trip_load_645_b_h_3";
  phases BS;
  length 100.0000;
  continuous_rating_B 400.00;
  emergency_rating_B 600.00;
  configuration "tcon_2p_code10_12";
}
object triplex_line {
  name "tpx_trip_line_645_b_h_4";
  from "trip_node_645_b_1";
  to "trip_load_645_b_h_4";
  phases BS;
  length 100.0000;
  continuous_rating_B 400.00;
  emergency_rating_B 600.00;
  configuration "tcon_2p_code10_12";
}
object overhead_line {
  name "line_ol_684_c_xfmr_684_c_5";
  from "meter_684_c";
  to "xfmr_meter_684_c_5";
  phases C;
  length 100.0000;
  continuous_rating_C 400.00;
  emergency_rating_C 600.00;
  configuration "lcon_1p_oh_code3_C";
}
object overhead_line {
  name "line_ol_684_c_xfmr_684_c_4";
  from "meter_684_c";
  to "xfmr_meter_684_c_4";
  phases C;
  length 100.0000;
  continuous_rating_C 400.00;
  emergency_rating_C 600.00;
  configuration "lcon_1p_oh_code3_C";
}
object overhead_line {
  name "line_ol_684_c_xfmr_684_c_3";
  from "meter_684_c";
  to "xfmr_meter_684_c_3";
  phases C;
  length 100.0000;
  continuous_rating_C 400.00;
  emergency_rating_C 600.00;
  configuration "lcon_1p_oh_code3_C";
}
object overhead_line {
  name "line_ol_684_c_xfmr_684_c_2";
  from "meter_684_c";
  to "xfmr_meter_684_c_2";
  phases C;
  length 100.0000;
  continuous_rating_C 400.00;
  emergency_rating_C 600.00;
  configuration "lcon_1p_oh_code3_C";
}
object overhead_line {
  name "line_ol_684_c_xfmr_684_c_1";
  from "meter_684_c";
  to "xfmr_meter_684_c_1";
  phases C;
  length 100.0000;
  continuous_rating_C 400.00;
  emergency_rating_C 600.00;
  configuration "lcon_1p_oh_code3_C";
}
object overhead_line {
  name "line_ol_675_c_xfmr_675_c_1";
  from "meter_675_c";
  to "xfmr_meter_675_c_1";
  phases C;
  length 100.0000;
  continuous_rating_C 400.00;
  emergency_rating_C 600.00;
  configuration "lcon_1p_oh_code3_C";
}
object triplex_line {
  name "tpx_trip_line_692_c_h_40";
  from "trip_node_692_c_5";
  to "trip_load_692_c_h_40";
  phases CS;
  length 100.0000;
  continuous_rating_C 400.00;
  emergency_rating_C 600.00;
  configuration "tcon_2p_code10_12";
}
object overhead_line {
  name "line_ol_675_c_xfmr_675_c_2";
  from "meter_675_c";
  to "xfmr_meter_675_c_2";
  phases C;
  length 100.0000;
  continuous_rating_C 400.00;
  emergency_rating_C 600.00;
  configuration "lcon_1p_oh_code3_C";
}
object overhead_line {
  name "line_ol_675_c_xfmr_675_c_3";
  from "meter_675_c";
  to "xfmr_meter_675_c_3";
  phases C;
  length 100.0000;
  continuous_rating_C 400.00;
  emergency_rating_C 600.00;
  configuration "lcon_1p_oh_code3_C";
}
object overhead_line {
  name "line_ol_675_c_xfmr_675_c_4";
  from "meter_675_c";
  to "xfmr_meter_675_c_4";
  phases C;
  length 100.0000;
  continuous_rating_C 400.00;
  emergency_rating_C 600.00;
  configuration "lcon_1p_oh_code3_C";
}
object overhead_line {
  name "line_ol_675_c_xfmr_675_c_5";
  from "meter_675_c";
  to "xfmr_meter_675_c_5";
  phases C;
  length 100.0000;
  continuous_rating_C 400.00;
  emergency_rating_C 600.00;
  configuration "lcon_1p_oh_code3_C";
}
object overhead_line {
  name "line_ol_671_c";
  from "n671";
  to "meter_671_c";
  phases C;
  length 100.0000;
  continuous_rating_C 400.00;
  emergency_rating_C 600.00;
  configuration "lcon_1p_oh_code3_C";
}
object overhead_line {
  name "line_ol_671_a";
  from "n671";
  to "meter_671_a";
  phases A;
  length 100.0000;
  continuous_rating_A 400.00;
  emergency_rating_A 600.00;
  configuration "lcon_1p_oh_code8_A";
}
object overhead_line {
  name "line_ol_671_b";
  from "n671";
  to "meter_671_b";
  phases B;
  length 100.0000;
  continuous_rating_B 400.00;
  emergency_rating_B 600.00;
  configuration "lcon_1p_oh_code9_B";
}
object triplex_line {
  name "tpx_trip_line_632_a_h_6";
  from "trip_node_632_a_1";
  to "trip_load_632_a_h_6";
  phases AS;
  length 100.0000;
  continuous_rating_A 400.00;
  emergency_rating_A 600.00;
  configuration "tcon_2p_code10_12";
}
object triplex_line {
  name "tpx_trip_line_632_a_h_7";
  from "trip_node_632_a_1";
  to "trip_load_632_a_h_7";
  phases AS;
  length 100.0000;
  continuous_rating_A 400.00;
  emergency_rating_A 600.00;
  configuration "tcon_2p_code10_12";
}
object triplex_line {
  name "tpx_trip_line_632_a_h_4";
  from "trip_node_632_a_1";
  to "trip_load_632_a_h_4";
  phases AS;
  length 100.0000;
  continuous_rating_A 400.00;
  emergency_rating_A 600.00;
  configuration "tcon_2p_code10_12";
}
object triplex_line {
  name "tpx_trip_line_632_a_h_5";
  from "trip_node_632_a_1";
  to "trip_load_632_a_h_5";
  phases AS;
  length 100.0000;
  continuous_rating_A 400.00;
  emergency_rating_A 600.00;
  configuration "tcon_2p_code10_12";
}
object triplex_line {
  name "tpx_trip_line_632_a_h_2";
  from "trip_node_632_a_1";
  to "trip_load_632_a_h_2";
  phases AS;
  length 100.0000;
  continuous_rating_A 400.00;
  emergency_rating_A 600.00;
  configuration "tcon_2p_code10_12";
}
object triplex_line {
  name "tpx_trip_line_632_a_h_3";
  from "trip_node_632_a_1";
  to "trip_load_632_a_h_3";
  phases AS;
  length 100.0000;
  continuous_rating_A 400.00;
  emergency_rating_A 600.00;
  configuration "tcon_2p_code10_12";
}
object triplex_line {
  name "tpx_trip_line_632_a_h_1";
  from "trip_node_632_a_1";
  to "trip_load_632_a_h_1";
  phases AS;
  length 100.0000;
  continuous_rating_A 400.00;
  emergency_rating_A 600.00;
  configuration "tcon_2p_code10_12";
}
object triplex_line {
  name "tpx_trip_line_632_a_h_8";
  from "trip_node_632_a_1";
  to "trip_load_632_a_h_8";
  phases AS;
  length 100.0000;
  continuous_rating_A 400.00;
  emergency_rating_A 600.00;
  configuration "tcon_2p_code10_12";
}
object triplex_line {
  name "tpx_trip_line_632_a_h_9";
  from "trip_node_632_a_2";
  to "trip_load_632_a_h_9";
  phases AS;
  length 100.0000;
  continuous_rating_A 400.00;
  emergency_rating_A 600.00;
  configuration "tcon_2p_code10_12";
}
object triplex_line {
  name "tpx_trip_line_671_a_h_40";
  from "trip_node_671_a_5";
  to "trip_load_671_a_h_40";
  phases AS;
  length 100.0000;
  continuous_rating_A 400.00;
  emergency_rating_A 600.00;
  configuration "tcon_2p_code10_12";
}
object triplex_line {
  name "tpx_trip_line_692_b_h_12";
  from "trip_node_692_b_2";
  to "trip_load_692_b_h_12";
  phases BS;
  length 100.0000;
  continuous_rating_B 400.00;
  emergency_rating_B 600.00;
  configuration "tcon_2p_code10_12";
}
object triplex_line {
  name "tpx_trip_line_692_b_h_13";
  from "trip_node_692_b_2";
  to "trip_load_692_b_h_13";
  phases BS;
  length 100.0000;
  continuous_rating_B 400.00;
...